@<TRIPOS>MOLECULE
JZ4
   10    10     1     0     0
SMALL
bcc


@<TRIPOS>ATOM
      1 OAB         23.4120   -23.5360    -4.3420 o        167 JZ4      -0.231000
      2 C4          24.2940   -24.1240    -0.0710 c1       167 JZ4       0.373000
      3 C7          21.5530   -27.2140    -4.1120 c1       167 JZ4       0.005000
      4 C8          22.0680   -26.7470    -5.3310 c1       167 JZ4       0.047000
      5 C9          22.6710   -25.5120    -5.4480 c1       167 JZ4      -0.197000
      6 C10         22.7690   -24.7300    -4.2950 c2       167 JZ4       0.393000
      7 C11         21.6930   -26.4590    -2.9540 c1       167 JZ4      -0.089000
      8 C12         22.2940   -25.1870    -3.0750 c2       167 JZ4      -0.124000
      9 C13         22.4630   -24.4140    -1.8080 c1       167 JZ4       0.344000
     10 C14         23.9250   -24.7040    -1.3940 c1       167 JZ4      -0.520000
@<TRIPOS>BOND
     1     1     6 1   
     2     2    10 1   
     3     3     4 1   
     4     3     7 1   
     5     4     5 1   
     6     5     6 1   
     7     6     8 1   
     8     7     8 1   
     9     8     9 1   
    10     9    10 1   
@<TRIPOS>SUBSTRUCTURE
     1 JZ4         1 TEMP              0 ****  ****    0 ROOT
